Circuit: * C:\Users\sibus\Downloads\Graphs\Amp.asc

Direct Newton iteration for .op point succeeded.

Date: Sun May 12 14:39:33 2024
Total elapsed time: 0.238 seconds.

tnom = 27
temp = 27
method = modified trap
totiter = 2094
traniter = 2082
tranpoints = 1042
accept = 1042
rejected = 0
matrix size = 142
fillins = 148
solver = Normal
Avg thread counts: 2.3/3.6/3.6/2.3
Matrix Compiler1: 13.84 KB object code size  5.0/2.8/[1.2]
Matrix Compiler2: 14.33 KB object code size  2.1/3.3/[1.5]

